*SPEF "ieee 1481-1999"
*DESIGN "gcd"
*DATE "02:08:42 Tuesday June 03, 2025"
*VENDOR "The OpenROAD Project"
*PROGRAM "OpenROAD"
*VERSION "d51b22be4cdca4e7ab55ad19f6fe407116325f35"
*DESIGN_FLOW "NAME_SCOPE LOCAL" "PIN_CAP NONE"
*DIVIDER /
*DELIMITER :
*BUS_DELIMITER []
*T_UNIT 1 NS
*C_UNIT 1 PF
*R_UNIT 1 OHM
*L_UNIT 1 HENRY

*NAME_MAP
*1 _000_
*2 _001_
*3 _002_
*4 _003_
*5 _004_
*6 _005_
*7 _006_
*8 _007_
*9 _008_
*10 _009_
*11 _010_
*12 _011_
*13 _012_
*14 _013_
*15 _014_
*16 _015_
*17 _016_
*18 _017_
*19 _018_
*20 _019_
*21 _020_
*22 _021_
*23 _022_
*24 _023_
*25 _024_
*26 _025_
*27 _026_
*28 _027_
*29 _028_
*30 _029_
*31 _030_
*32 _031_
*33 _032_
*34 _033_
*35 _034_
*36 _035_
*37 _036_
*39 _038_
*40 _039_
*41 _040_
*42 _041_
*43 _042_
*44 _043_
*45 _044_
*46 _045_
*47 _046_
*48 _047_
*49 _048_
*50 _049_
*51 _050_
*52 _051_
*53 _052_
*54 _053_
*55 _054_
*56 _055_
*57 _056_
*58 _057_
*59 _058_
*61 _060_
*62 _061_
*63 _062_
*64 _063_
*65 _064_
*66 _065_
*67 _066_
*68 _067_
*69 _068_
*70 _069_
*71 _070_
*72 _071_
*73 _072_
*74 _073_
*75 _074_
*76 _075_
*77 _076_
*78 _077_
*79 _078_
*80 _079_
*81 _080_
*82 _081_
*83 _082_
*84 _083_
*85 _084_
*86 _085_
*87 _086_
*88 _087_
*89 _088_
*90 _089_
*91 _090_
*92 _091_
*93 _092_
*94 _093_
*95 _094_
*96 _095_
*97 _096_
*98 _097_
*99 _098_
*100 _099_
*101 _100_
*102 _101_
*103 _102_
*104 _103_
*105 _104_
*106 _105_
*107 _106_
*108 _107_
*109 _108_
*110 _109_
*111 _110_
*112 _111_
*113 _112_
*114 _113_
*115 _114_
*116 _115_
*117 _116_
*118 _117_
*119 _118_
*120 _119_
*121 _120_
*122 _121_
*123 _122_
*124 _123_
*125 _124_
*126 _125_
*127 _126_
*128 _127_
*129 _128_
*130 _129_
*131 _130_
*132 _131_
*133 _132_
*134 _133_
*135 _134_
*136 _135_
*137 _136_
*138 _137_
*139 _138_
*140 _139_
*141 _140_
*142 _141_
*143 _142_
*144 _143_
*145 _144_
*146 _145_
*147 _146_
*148 _147_
*149 _148_
*150 _149_
*151 _150_
*152 _151_
*153 _152_
*154 _153_
*155 _154_
*156 _155_
*157 _156_
*158 _157_
*159 _158_
*160 _159_
*161 _160_
*162 _161_
*163 _162_
*164 _163_
*165 _164_
*166 _165_
*168 _167_
*169 _168_
*173 _172_
*175 _174_
*177 _176_
*178 _177_
*179 _178_
*180 _179_
*181 _180_
*182 _181_
*183 _182_
*184 _183_
*185 _184_
*186 _185_
*187 _186_
*188 _187_
*189 _188_
*190 clknet_2_3__leaf_clk
*191 _190_
*192 _191_
*193 clknet_2_2__leaf_clk
*194 _193_
*195 _194_
*196 _195_
*197 _196_
*198 _197_
*199 _198_
*200 _199_
*201 _200_
*202 clknet_2_1__leaf_clk
*203 clknet_2_0__leaf_clk
*204 _203_
*205 _204_
*206 _205_
*207 _206_
*208 _207_
*209 _208_
*210 _209_
*211 _210_
*212 _211_
*213 _212_
*214 _213_
*215 _214_
*216 _215_
*217 _216_
*218 _217_
*219 _218_
*220 _219_
*221 _220_
*222 _221_
*223 _222_
*224 _223_
*225 _224_
*226 _225_
*227 _226_
*228 _227_
*229 _228_
*230 _229_
*231 _230_
*232 _231_
*233 _232_
*234 _233_
*235 clknet_0_clk
*236 _235_
*237 _236_
*239 _238_
*240 _239_
*241 _240_
*243 _242_
*244 _243_
*245 _244_
*246 _245_
*247 _246_
*248 _247_
*249 _248_
*250 _249_
*251 _250_
*252 _251_
*253 _252_
*254 _253_
*255 _254_
*256 _255_
*257 _256_
*258 _257_
*259 _258_
*260 _259_
*261 _260_
*262 _261_
*263 _262_
*264 _263_
*265 _264_
*266 _265_
*267 _266_
*268 _267_
*269 _268_
*270 _269_
*271 _270_
*272 _271_
*273 _272_
*274 _273_
*275 _274_
*276 _275_
*277 _276_
*278 _277_
*279 _278_
*280 _279_
*281 _280_
*282 _281_
*283 _282_
*284 _283_
*285 _284_
*286 _285_
*287 _286_
*288 _287_
*289 _288_
*290 _289_
*291 _290_
*292 _291_
*293 _292_
*294 _293_
*295 _294_
*296 _295_
*297 _296_
*298 _297_
*299 _298_
*300 _299_
*301 _300_
*302 _301_
*303 _302_
*304 _303_
*305 _304_
*306 _305_
*307 _306_
*308 _307_
*309 _308_
*310 _309_
*311 _310_
*312 _311_
*313 _312_
*314 _313_
*315 _314_
*316 _315_
*317 _316_
*318 _317_
*319 _318_
*320 _319_
*321 _320_
*322 _321_
*323 _322_
*324 _323_
*325 _324_
*326 _325_
*327 _326_
*328 _327_
*329 _328_
*330 _329_
*331 _330_
*332 _331_
*333 _332_
*334 _333_
*335 _334_
*336 _335_
*337 _336_
*338 _337_
*339 _338_
*340 _339_
*341 _340_
*342 _341_
*343 _342_
*344 _343_
*345 _344_
*346 clk
*347 ctrl\.state\.out\[1\]
*348 ctrl\.state\.out\[2\]
*349 dpath\.a_lt_b\$in0\[0\]
*350 dpath\.a_lt_b\$in0\[10\]
*351 dpath\.a_lt_b\$in0\[11\]
*352 dpath\.a_lt_b\$in0\[12\]
*353 dpath\.a_lt_b\$in0\[13\]
*354 dpath\.a_lt_b\$in0\[14\]
*355 dpath\.a_lt_b\$in0\[15\]
*356 dpath\.a_lt_b\$in0\[1\]
*357 dpath\.a_lt_b\$in0\[2\]
*358 dpath\.a_lt_b\$in0\[3\]
*359 dpath\.a_lt_b\$in0\[4\]
*360 dpath\.a_lt_b\$in0\[5\]
*361 dpath\.a_lt_b\$in0\[6\]
*362 dpath\.a_lt_b\$in0\[7\]
*363 dpath\.a_lt_b\$in0\[8\]
*364 dpath\.a_lt_b\$in0\[9\]
*365 dpath\.a_lt_b\$in1\[0\]
*366 dpath\.a_lt_b\$in1\[10\]
*367 dpath\.a_lt_b\$in1\[11\]
*368 dpath\.a_lt_b\$in1\[12\]
*369 dpath\.a_lt_b\$in1\[13\]
*370 dpath\.a_lt_b\$in1\[14\]
*371 dpath\.a_lt_b\$in1\[15\]
*372 dpath\.a_lt_b\$in1\[1\]
*373 dpath\.a_lt_b\$in1\[2\]
*374 dpath\.a_lt_b\$in1\[3\]
*375 dpath\.a_lt_b\$in1\[4\]
*376 dpath\.a_lt_b\$in1\[5\]
*377 dpath\.a_lt_b\$in1\[6\]
*378 dpath\.a_lt_b\$in1\[7\]
*379 dpath\.a_lt_b\$in1\[8\]
*380 dpath\.a_lt_b\$in1\[9\]
*381 req_msg[0]
*382 req_msg[10]
*383 req_msg[11]
*384 req_msg[12]
*385 req_msg[13]
*386 req_msg[14]
*387 req_msg[15]
*388 req_msg[16]
*389 req_msg[17]
*390 req_msg[18]
*391 req_msg[19]
*392 req_msg[1]
*393 req_msg[20]
*394 req_msg[21]
*395 req_msg[22]
*396 req_msg[23]
*397 req_msg[24]
*398 req_msg[25]
*399 req_msg[26]
*400 req_msg[27]
*401 req_msg[28]
*402 req_msg[29]
*403 req_msg[2]
*404 req_msg[30]
*405 req_msg[31]
*406 req_msg[3]
*407 req_msg[4]
*408 req_msg[5]
*409 req_msg[6]
*410 req_msg[7]
*411 req_msg[8]
*412 req_msg[9]
*413 req_rdy
*414 req_val
*415 reset
*416 resp_msg[0]
*417 resp_msg[10]
*418 resp_msg[11]
*419 resp_msg[12]
*420 resp_msg[13]
*421 resp_msg[14]
*422 resp_msg[15]
*423 resp_msg[1]
*424 resp_msg[2]
*425 resp_msg[3]
*426 resp_msg[4]
*427 resp_msg[5]
*428 resp_msg[6]
*429 resp_msg[7]
*430 resp_msg[8]
*431 resp_msg[9]
*432 resp_rdy
*433 resp_val
*434 _345_
*435 PHY_EDGE_ROW_14_Right_14
*436 _347_
*437 _348_
*438 _349_
*439 _350_
*440 _351_
*441 _352_
*442 _353_
*443 _354_
*444 _355_
*445 _356_
*446 _357_
*447 _358_
*448 _359_
*449 _360_
*450 _361_
*451 _362_
*452 _363_
*453 _364_
*454 _365_
*455 _366_
*456 _367_
*457 PHY_EDGE_ROW_13_Right_13
*458 _369_
*459 _370_
*460 _371_
*461 _372_
*462 _373_
*463 _374_
*464 _375_
*465 _376_
*466 _377_
*467 _378_
*468 _379_
*469 _380_
*470 _381_
*471 _382_
*472 _383_
*473 _384_
*474 _385_
*475 _386_
*476 _387_
*477 _388_
*478 _389_
*479 _390_
*480 _391_
*481 _392_
*482 _393_
*483 _394_
*484 _395_
*485 _396_
*486 _397_
*487 _398_
*488 _399_
*489 _400_
*490 _401_
*491 _402_
*492 _403_
*493 _404_
*494 _405_
*495 _406_
*496 _407_
*497 _408_
*498 _409_
*499 _410_
*500 _411_
*501 _412_
*502 _413_
*503 _414_
*504 _415_
*505 _416_
*506 _417_
*507 _418_
*508 _419_
*509 _420_
*510 _421_
*511 _422_
*512 _423_
*513 _424_
*514 _425_
*515 _426_
*516 _427_
*517 _428_
*518 _429_
*519 _430_
*520 _431_
*521 _432_
*522 _433_
*523 _434_
*524 _435_
*525 _436_
*526 _437_
*527 _438_
*528 _439_
*529 _440_
*530 _441_
*531 _442_
*532 _443_
*533 _444_
*534 _445_
*535 _446_
*536 _447_
*537 _448_
*538 _449_
*539 _450_
*540 _451_
*541 _452_
*542 _453_
*543 _454_
*544 _455_
*545 _456_
*546 _457_
*547 _458_
*548 _459_
*549 _460_
*550 _461_
*551 _462_
*552 _463_
*553 _464_
*554 _465_
*555 _466_
*556 _467_
*557 _468_
*558 _469_
*559 _470_
*560 _471_
*561 _472_
*562 _473_
*563 _474_
*564 _475_
*565 _476_
*566 _477_
*567 _478_
*568 _479_
*569 _480_
*570 _481_
*571 _482_
*572 _483_
*573 _484_
*574 _485_
*575 _486_
*576 _487_
*577 _488_
*578 _489_
*579 _490_
*580 PHY_EDGE_ROW_12_Right_12
*581 _492_
*582 _493_
*583 PHY_EDGE_ROW_11_Right_11
*584 PHY_EDGE_ROW_10_Right_10
*585 PHY_EDGE_ROW_9_Right_9
*586 _497_
*587 _498_
*588 PHY_EDGE_ROW_8_Right_8
*589 _500_
*590 _501_
*591 PHY_EDGE_ROW_7_Right_7
*592 _503_
*593 _504_
*594 _505_
*595 _506_
*596 _507_
*597 _508_
*598 _509_
*599 _510_
*600 _511_
*601 _512_
*602 _513_
*603 _514_
*604 _515_
*605 _516_
*606 _517_
*607 PHY_EDGE_ROW_6_Right_6
*608 _519_
*609 _520_
*610 PHY_EDGE_ROW_5_Right_5
*611 _522_
*612 _523_
*613 _524_
*614 _525_
*615 _526_
*616 _527_
*617 _528_
*618 _529_
*619 _530_
*620 _531_
*621 _532_
*622 _533_
*623 PHY_EDGE_ROW_4_Right_4
*624 PHY_EDGE_ROW_3_Right_3
*625 _536_
*626 _537_
*627 _538_
*628 _539_
*629 _540_
*630 _541_
*631 _542_
*632 _543_
*633 _544_
*634 _545_
*635 _546_
*636 _547_
*637 _548_
*638 _549_
*639 _550_
*640 _551_
*641 _552_
*642 _553_
*643 _554_
*644 _555_
*645 _556_
*646 _557_
*647 _558_
*648 _559_
*649 _560_
*650 _561_
*651 _562_
*652 _563_
*653 _564_
*654 _565_
*655 _566_
*656 _567_
*657 _568_
*658 _569_
*659 _570_
*660 _571_
*661 _572_
*662 _573_
*663 _574_
*664 _575_
*665 _576_
*666 _577_
*667 _578_
*668 PHY_EDGE_ROW_2_Right_2
*669 _580_
*670 _581_
*671 PHY_EDGE_ROW_1_Right_1
*672 _583_
*673 _584_
*674 _585_
*675 PHY_EDGE_ROW_0_Right_0
*676 _587_
*677 _588_
*678 _589_
*679 _590_
*680 _591_
*681 _592_
*682 _593_
*683 _594_
*684 _595_
*685 _596_
*686 _597_
*687 _598_
*688 _599_
*689 _600_
*690 _601_
*691 _602_
*692 _603_
*693 _604_
*694 _605_
*695 _606_
*696 _607_
*697 _608_
*698 _609_
*699 _610_
*700 _611_
*701 _612_
*702 _613_
*703 _614_
*704 _615_
*705 _616_
*706 _617_
*707 _618_
*708 _619_
*709 _620_
*710 _621_
*711 _622_
*712 _623_
*713 _624_
*714 _625_
*715 _626_
*716 _627_
*717 _628_
*718 _629_
*719 _630_
*720 _631_
*721 _632_
*722 _633_
*723 _634_
*724 _635_
*725 _636_
*726 _637_
*727 _638_
*728 _639_
*729 _640_
*730 _641_
*731 _642_
*732 _643_
*733 _644_
*734 _645_
*735 _646_
*736 _647_
*737 _648_
*738 _649_
*739 _650_
*740 _651_
*741 _652_
*742 _653_
*743 _654_
*744 _655_
*745 _656_
*746 _657_
*747 _658_
*748 _659_
*749 _660_
*750 _661_
*751 _662_
*752 _663_
*753 _664_
*754 _665_
*755 _666_
*756 _667_
*757 _668_
*758 _669_
*759 _670_
*760 _671_
*761 _672_
*762 _673_
*763 _674_
*764 _675_
*765 _676_
*766 _677_
*767 _678_
*768 _679_
*769 _680_
*770 _681_
*771 _682_
*772 _683_
*773 _684_
*774 _685_
*775 _686_
*776 _687_
*777 _688_
*778 _689_
*779 _690_
*780 _691_
*781 _692_
*782 _693_
*783 _694_
*784 _695_
*785 _696_
*786 _697_
*787 _698_
*788 _699_
*789 _700_
*790 _701_
*791 _702_
*792 _703_
*793 _704_
*794 _705_
*795 _706_
*796 PHY_EDGE_ROW_15_Right_15
*797 PHY_EDGE_ROW_16_Right_16
*798 PHY_EDGE_ROW_17_Right_17
*799 PHY_EDGE_ROW_18_Right_18
*800 PHY_EDGE_ROW_19_Right_19
*801 PHY_EDGE_ROW_20_Right_20
*802 PHY_EDGE_ROW_21_Right_21
*803 PHY_EDGE_ROW_22_Right_22
*804 PHY_EDGE_ROW_23_Right_23
*805 PHY_EDGE_ROW_24_Right_24
*806 PHY_EDGE_ROW_25_Right_25
*807 PHY_EDGE_ROW_26_Right_26
*808 PHY_EDGE_ROW_27_Right_27
*809 PHY_EDGE_ROW_28_Right_28
*810 PHY_EDGE_ROW_29_Right_29
*811 PHY_EDGE_ROW_30_Right_30
*812 PHY_EDGE_ROW_31_Right_31
*813 PHY_EDGE_ROW_32_Right_32
*814 PHY_EDGE_ROW_33_Right_33
*815 PHY_EDGE_ROW_34_Right_34
*816 PHY_EDGE_ROW_35_Right_35
*817 PHY_EDGE_ROW_36_Right_36
*818 PHY_EDGE_ROW_37_Right_37
*819 PHY_EDGE_ROW_38_Right_38
*820 PHY_EDGE_ROW_39_Right_39
*821 PHY_EDGE_ROW_40_Right_40
*822 PHY_EDGE_ROW_41_Right_41
*823 PHY_EDGE_ROW_42_Right_42
*824 PHY_EDGE_ROW_43_Right_43
*825 PHY_EDGE_ROW_44_Right_44
*826 PHY_EDGE_ROW_45_Right_45
*827 PHY_EDGE_ROW_46_Right_46
*828 PHY_EDGE_ROW_47_Right_47
*829 PHY_EDGE_ROW_48_Right_48
*830 PHY_EDGE_ROW_49_Right_49
*831 PHY_EDGE_ROW_50_Right_50
*832 PHY_EDGE_ROW_51_Right_51
*833 PHY_EDGE_ROW_52_Right_52
*834 PHY_EDGE_ROW_53_Right_53
*835 PHY_EDGE_ROW_54_Right_54
*836 PHY_EDGE_ROW_55_Right_55
*837 PHY_EDGE_ROW_56_Right_56
*838 PHY_EDGE_ROW_0_Left_57
*839 PHY_EDGE_ROW_1_Left_58
*840 PHY_EDGE_ROW_2_Left_59
*841 PHY_EDGE_ROW_3_Left_60
*842 PHY_EDGE_ROW_4_Left_61
*843 PHY_EDGE_ROW_5_Left_62
*844 PHY_EDGE_ROW_6_Left_63
*845 PHY_EDGE_ROW_7_Left_64
*846 PHY_EDGE_ROW_8_Left_65
*847 PHY_EDGE_ROW_9_Left_66
*848 PHY_EDGE_ROW_10_Left_67
*849 PHY_EDGE_ROW_11_Left_68
*850 PHY_EDGE_ROW_12_Left_69
*851 PHY_EDGE_ROW_13_Left_70
*852 PHY_EDGE_ROW_14_Left_71
*853 PHY_EDGE_ROW_15_Left_72
*854 PHY_EDGE_ROW_16_Left_73
*855 PHY_EDGE_ROW_17_Left_74
*856 PHY_EDGE_ROW_18_Left_75
*857 PHY_EDGE_ROW_19_Left_76
*858 PHY_EDGE_ROW_20_Left_77
*859 PHY_EDGE_ROW_21_Left_78
*860 PHY_EDGE_ROW_22_Left_79
*861 PHY_EDGE_ROW_23_Left_80
*862 PHY_EDGE_ROW_24_Left_81
*863 PHY_EDGE_ROW_25_Left_82
*864 PHY_EDGE_ROW_26_Left_83
*865 PHY_EDGE_ROW_27_Left_84
*866 PHY_EDGE_ROW_28_Left_85
*867 PHY_EDGE_ROW_29_Left_86
*868 PHY_EDGE_ROW_30_Left_87
*869 PHY_EDGE_ROW_31_Left_88
*870 PHY_EDGE_ROW_32_Left_89
*871 PHY_EDGE_ROW_33_Left_90
*872 PHY_EDGE_ROW_34_Left_91
*873 PHY_EDGE_ROW_35_Left_92
*874 PHY_EDGE_ROW_36_Left_93
*875 PHY_EDGE_ROW_37_Left_94
*876 PHY_EDGE_ROW_38_Left_95
*877 PHY_EDGE_ROW_39_Left_96
*878 PHY_EDGE_ROW_40_Left_97
*879 PHY_EDGE_ROW_41_Left_98
*880 PHY_EDGE_ROW_42_Left_99
*881 PHY_EDGE_ROW_43_Left_100
*882 PHY_EDGE_ROW_44_Left_101
*883 PHY_EDGE_ROW_45_Left_102
*884 PHY_EDGE_ROW_46_Left_103
*885 PHY_EDGE_ROW_47_Left_104
*886 PHY_EDGE_ROW_48_Left_105
*887 PHY_EDGE_ROW_49_Left_106
*888 PHY_EDGE_ROW_50_Left_107
*889 PHY_EDGE_ROW_51_Left_108
*890 PHY_EDGE_ROW_52_Left_109
*891 PHY_EDGE_ROW_53_Left_110
*892 PHY_EDGE_ROW_54_Left_111
*893 PHY_EDGE_ROW_55_Left_112
*894 PHY_EDGE_ROW_56_Left_113
*895 clkbuf_0_clk
*896 clkbuf_2_0__f_clk
*897 clkbuf_2_1__f_clk
*898 clkbuf_2_2__f_clk
*899 clkbuf_2_3__f_clk
*900 clkload0
*901 FILLER_0_1
*902 FILLER_0_33
*903 FILLER_0_65
*904 FILLER_0_97
*905 FILLER_0_129
*906 FILLER_0_161
*907 FILLER_0_193
*908 FILLER_0_225
*909 FILLER_0_257
*910 FILLER_0_289
*911 FILLER_0_321
*912 FILLER_0_353
*913 FILLER_0_385
*914 FILLER_0_417
*915 FILLER_1_1
*916 FILLER_1_33
*917 FILLER_1_65
*918 FILLER_1_97
*919 FILLER_1_129
*920 FILLER_1_161
*921 FILLER_1_193
*922 FILLER_1_225
*923 FILLER_1_257
*924 FILLER_1_289
*925 FILLER_1_321
*926 FILLER_1_353
*927 FILLER_1_385
*928 FILLER_1_417
*929 FILLER_2_1
*930 FILLER_2_20
*931 FILLER_2_52
*932 FILLER_2_84
*933 FILLER_2_116
*934 FILLER_2_148
*935 FILLER_2_180
*936 FILLER_2_212
*937 FILLER_2_244
*938 FILLER_2_276
*939 FILLER_2_292
*940 FILLER_2_296
*941 FILLER_2_301
*942 FILLER_2_333
*943 FILLER_2_365
*944 FILLER_2_381
*945 FILLER_2_389
*946 FILLER_2_396
*947 FILLER_2_412
*948 FILLER_2_420
*949 FILLER_3_1
*950 FILLER_3_33
*951 FILLER_3_65
*952 FILLER_3_97
*953 FILLER_3_129
*954 FILLER_3_161
*955 FILLER_3_193
*956 FILLER_3_225
*957 FILLER_3_257
*958 FILLER_3_289
*959 FILLER_3_321
*960 FILLER_3_353
*961 FILLER_3_385
*962 FILLER_3_417
*963 FILLER_4_1
*964 FILLER_4_33
*965 FILLER_4_65
*966 FILLER_4_97
*967 FILLER_4_129
*968 FILLER_4_161
*969 FILLER_4_193
*970 FILLER_4_225
*971 FILLER_4_257
*972 FILLER_4_289
*973 FILLER_4_321
*974 FILLER_4_353
*975 FILLER_4_385
*976 FILLER_4_417
*977 FILLER_5_1
*978 FILLER_5_33
*979 FILLER_5_65
*980 FILLER_5_97
*981 FILLER_5_129
*982 FILLER_5_161
*983 FILLER_5_193
*984 FILLER_5_225
*985 FILLER_5_257
*986 FILLER_5_289
*987 FILLER_5_321
*988 FILLER_5_353
*989 FILLER_5_385
*990 FILLER_5_417
*991 FILLER_6_1
*992 FILLER_6_33
*993 FILLER_6_65
*994 FILLER_6_97
*995 FILLER_6_129
*996 FILLER_6_161
*997 FILLER_6_193
*998 FILLER_6_225
*999 FILLER_6_257
*1000 FILLER_6_289
*1001 FILLER_6_321
*1002 FILLER_6_353
*1003 FILLER_6_385
*1004 FILLER_6_417
*1005 FILLER_7_1
*1006 FILLER_7_33
*1007 FILLER_7_65
*1008 FILLER_7_97
*1009 FILLER_7_129
*1010 FILLER_7_161
*1011 FILLER_7_193
*1012 FILLER_7_225
*1013 FILLER_7_257
*1014 FILLER_7_289
*1015 FILLER_7_321
*1016 FILLER_7_353
*1017 FILLER_7_385
*1018 FILLER_7_417
*1019 FILLER_8_1
*1020 FILLER_8_33
*1021 FILLER_8_65
*1022 FILLER_8_97
*1023 FILLER_8_129
*1024 FILLER_8_161
*1025 FILLER_8_193
*1026 FILLER_8_225
*1027 FILLER_8_257
*1028 FILLER_8_289
*1029 FILLER_8_321
*1030 FILLER_8_337
*1031 FILLER_8_341
*1032 FILLER_8_347
*1033 FILLER_8_379
*1034 FILLER_8_411
*1035 FILLER_8_419
*1036 FILLER_9_1
*1037 FILLER_9_33
*1038 FILLER_9_65
*1039 FILLER_9_97
*1040 FILLER_9_129
*1041 FILLER_9_145
*1042 FILLER_9_153
*1043 FILLER_9_158
*1044 FILLER_9_190
*1045 FILLER_9_198
*1046 FILLER_9_209
*1047 FILLER_9_241
*1048 FILLER_9_259
*1049 FILLER_9_275
*1050 FILLER_9_283
*1051 FILLER_9_288
*1052 FILLER_9_292
*1053 FILLER_9_301
*1054 FILLER_9_317
*1055 FILLER_9_325
*1056 FILLER_9_344
*1057 FILLER_9_350
*1058 FILLER_9_366
*1059 FILLER_9_374
*1060 FILLER_9_385
*1061 FILLER_9_393
*1062 FILLER_9_409
*1063 FILLER_9_417
*1064 FILLER_10_1
*1065 FILLER_10_33
*1066 FILLER_10_65
*1067 FILLER_10_97
*1068 FILLER_10_129
*1069 FILLER_10_145
*1070 FILLER_10_153
*1071 FILLER_10_155
*1072 FILLER_10_160
*1073 FILLER_10_179
*1074 FILLER_10_195
*1075 FILLER_10_199
*1076 FILLER_10_218
*1077 FILLER_10_222
*1078 FILLER_10_254
*1079 FILLER_10_270
*1080 FILLER_10_295
*1081 FILLER_10_300
*1082 FILLER_10_332
*1083 FILLER_10_364
*1084 FILLER_10_372
*1085 FILLER_10_376
*1086 FILLER_10_394
*1087 FILLER_10_410
*1088 FILLER_10_418
*1089 FILLER_10_420
*1090 FILLER_11_1
*1091 FILLER_11_33
*1092 FILLER_11_65
*1093 FILLER_11_97
*1094 FILLER_11_129
*1095 FILLER_11_137
*1096 FILLER_11_141
*1097 FILLER_11_149
*1098 FILLER_11_165
*1099 FILLER_11_170
*1100 FILLER_11_186
*1101 FILLER_11_194
*1102 FILLER_11_202
*1103 FILLER_11_208
*1104 FILLER_11_213
*1105 FILLER_11_245
*1106 FILLER_11_277
*1107 FILLER_11_296
*1108 FILLER_11_328
*1109 FILLER_11_360
*1110 FILLER_11_376
*1111 FILLER_11_380
*1112 FILLER_11_384
*1113 FILLER_11_390
*1114 FILLER_11_395
*1115 FILLER_11_411
*1116 FILLER_11_419
*1117 FILLER_12_1
*1118 FILLER_12_33
*1119 FILLER_12_65
*1120 FILLER_12_97
*1121 FILLER_12_129
*1122 FILLER_12_145
*1123 FILLER_12_150
*1124 FILLER_12_156
*1125 FILLER_12_188
*1126 FILLER_12_192
*1127 FILLER_12_224
*1128 FILLER_12_230
*1129 FILLER_12_234
*1130 FILLER_12_236
*1131 FILLER_12_239
*1132 FILLER_12_271
*1133 FILLER_12_279
*1134 FILLER_12_283
*1135 FILLER_12_288
*1136 FILLER_12_294
*1137 FILLER_12_326
*1138 FILLER_12_334
*1139 FILLER_12_340
*1140 FILLER_12_345
*1141 FILLER_12_361
*1142 FILLER_12_369
*1143 FILLER_12_373
*1144 FILLER_12_377
*1145 FILLER_12_409
*1146 FILLER_12_417
*1147 FILLER_13_1
*1148 FILLER_13_33
*1149 FILLER_13_65
*1150 FILLER_13_97
*1151 FILLER_13_129
*1152 FILLER_13_137
*1153 FILLER_13_141
*1154 FILLER_13_160
*1155 FILLER_13_165
*1156 FILLER_13_181
*1157 FILLER_13_189
*1158 FILLER_13_193
*1159 FILLER_13_197
*1160 FILLER_13_205
*1161 FILLER_13_211
*1162 FILLER_13_219
*1163 FILLER_13_221
*1164 FILLER_13_226
*1165 FILLER_13_234
*1166 FILLER_13_239
*1167 FILLER_13_243
*1168 FILLER_13_247
*1169 FILLER_13_255
*1170 FILLER_13_262
*1171 FILLER_13_266
*1172 FILLER_13_268
*1173 FILLER_13_275
*1174 FILLER_13_291
*1175 FILLER_13_297
*1176 FILLER_13_313
*1177 FILLER_13_321
*1178 FILLER_13_325
*1179 FILLER_13_330
*1180 FILLER_13_349
*1181 FILLER_13_365
*1182 FILLER_13_373
*1183 FILLER_13_381
*1184 FILLER_13_387
*1185 FILLER_13_406
*1186 FILLER_13_414
*1187 FILLER_13_418
*1188 FILLER_13_420
*1189 FILLER_14_1
*1190 FILLER_14_33
*1191 FILLER_14_65
*1192 FILLER_14_97
*1193 FILLER_14_129
*1194 FILLER_14_161
*1195 FILLER_14_177
*1196 FILLER_14_185
*1197 FILLER_14_189
*1198 FILLER_14_191
*1199 FILLER_14_196
*1200 FILLER_14_204
*1201 FILLER_14_208
*1202 FILLER_14_212
*1203 FILLER_14_228
*1204 FILLER_14_239
*1205 FILLER_14_245
*1206 FILLER_14_251
*1207 FILLER_14_267
*1208 FILLER_14_276
*1209 FILLER_14_278
*1210 FILLER_14_282
*1211 FILLER_14_314
*1212 FILLER_14_330
*1213 FILLER_14_338
*1214 FILLER_14_342
*1215 FILLER_14_347
*1216 FILLER_14_352
*1217 FILLER_14_368
*1218 FILLER_14_376
*1219 FILLER_14_380
*1220 FILLER_14_396
*1221 FILLER_14_400
*1222 FILLER_14_404
*1223 FILLER_14_420
*1224 FILLER_15_1
*1225 FILLER_15_33
*1226 FILLER_15_65
*1227 FILLER_15_97
*1228 FILLER_15_129
*1229 FILLER_15_161
*1230 FILLER_15_169
*1231 FILLER_15_173
*1232 FILLER_15_178
*1233 FILLER_15_210
*1234 FILLER_15_242
*1235 FILLER_15_258
*1236 FILLER_15_260
*1237 FILLER_15_266
*1238 FILLER_15_274
*1239 FILLER_15_281
*1240 FILLER_15_313
*1241 FILLER_15_329
*1242 FILLER_15_340
*1243 FILLER_15_372
*1244 FILLER_15_404
*1245 FILLER_15_420
*1246 FILLER_16_1
*1247 FILLER_16_33
*1248 FILLER_16_65
*1249 FILLER_16_97
*1250 FILLER_16_129
*1251 FILLER_16_161
*1252 FILLER_16_169
*1253 FILLER_16_187
*1254 FILLER_16_192
*1255 FILLER_16_208
*1256 FILLER_16_216
*1257 FILLER_16_220
*1258 FILLER_16_226
*1259 FILLER_16_258
*1260 FILLER_16_266
*1261 FILLER_16_272
*1262 FILLER_16_304
*1263 FILLER_16_307
*1264 FILLER_16_323
*1265 FILLER_16_331
*1266 FILLER_16_336
*1267 FILLER_16_344
*1268 FILLER_16_348
*1269 FILLER_16_352
*1270 FILLER_16_384
*1271 FILLER_16_416
*1272 FILLER_16_420
*1273 FILLER_17_1
*1274 FILLER_17_33
*1275 FILLER_17_65
*1276 FILLER_17_97
*1277 FILLER_17_129
*1278 FILLER_17_161
*1279 FILLER_17_177
*1280 FILLER_17_182
*1281 FILLER_17_190
*1282 FILLER_17_194
*1283 FILLER_17_226
*1284 FILLER_17_258
*1285 FILLER_17_290
*1286 FILLER_17_297
*1287 FILLER_17_303
*1288 FILLER_17_305
*1289 FILLER_17_311
*1290 FILLER_17_319
*1291 FILLER_17_323
*1292 FILLER_17_329
*1293 FILLER_17_361
*1294 FILLER_17_377
*1295 FILLER_17_385
*1296 FILLER_17_396
*1297 FILLER_17_412
*1298 FILLER_17_420
*1299 FILLER_18_1
*1300 FILLER_18_17
*1301 FILLER_18_21
*1302 FILLER_18_53
*1303 FILLER_18_85
*1304 FILLER_18_117
*1305 FILLER_18_149
*1306 FILLER_18_181
*1307 FILLER_18_197
*1308 FILLER_18_205
*1309 FILLER_18_218
*1310 FILLER_18_250
*1311 FILLER_18_282
*1312 FILLER_18_298
*1313 FILLER_18_303
*1314 FILLER_18_312
*1315 FILLER_18_316
*1316 FILLER_18_323
*1317 FILLER_18_331
*1318 FILLER_18_333
*1319 FILLER_18_344
*1320 FILLER_18_346
*1321 FILLER_18_351
*1322 FILLER_18_386
*1323 FILLER_18_398
*1324 FILLER_18_414
*1325 FILLER_18_418
*1326 FILLER_18_420
*1327 FILLER_19_1
*1328 FILLER_19_33
*1329 FILLER_19_65
*1330 FILLER_19_97
*1331 FILLER_19_129
*1332 FILLER_19_161
*1333 FILLER_19_193
*1334 FILLER_19_209
*1335 FILLER_19_212
*1336 FILLER_19_220
*1337 FILLER_19_224
*1338 FILLER_19_226
*1339 FILLER_19_231
*1340 FILLER_19_237
*1341 FILLER_19_246
*1342 FILLER_19_251
*1343 FILLER_19_283
*1344 FILLER_19_315
*1345 FILLER_19_325
*1346 FILLER_19_332
*1347 FILLER_19_339
*1348 FILLER_19_355
*1349 FILLER_19_363
*1350 FILLER_19_367
*1351 FILLER_19_372
*1352 FILLER_19_404
*1353 FILLER_19_420
*1354 FILLER_20_1
*1355 FILLER_20_33
*1356 FILLER_20_65
*1357 FILLER_20_97
*1358 FILLER_20_129
*1359 FILLER_20_145
*1360 FILLER_20_153
*1361 FILLER_20_157
*1362 FILLER_20_159
*1363 FILLER_20_164
*1364 FILLER_20_172
*1365 FILLER_20_179
*1366 FILLER_20_183
*1367 FILLER_20_187
*1368 FILLER_20_195
*1369 FILLER_20_227
*1370 FILLER_20_231
*1371 FILLER_20_233
*1372 FILLER_20_251
*1373 FILLER_20_283
*1374 FILLER_20_315
*1375 FILLER_20_347
*1376 FILLER_20_379
*1377 FILLER_20_387
*1378 FILLER_20_394
*1379 FILLER_20_410
*1380 FILLER_20_418
*1381 FILLER_20_420
*1382 FILLER_21_1
*1383 FILLER_21_33
*1384 FILLER_21_65
*1385 FILLER_21_97
*1386 FILLER_21_129
*1387 FILLER_21_145
*1388 FILLER_21_153
*1389 FILLER_21_155
*1390 FILLER_21_173
*1391 FILLER_21_183
*1392 FILLER_21_191
*1393 FILLER_21_195
*1394 FILLER_21_201
*1395 FILLER_21_233
*1396 FILLER_21_249
*1397 FILLER_21_252
*1398 FILLER_21_262
*1399 FILLER_21_267
*1400 FILLER_21_299
*1401 FILLER_21_333
*1402 FILLER_21_365
*1403 FILLER_21_373
*1404 FILLER_21_377
*1405 FILLER_21_379
*1406 FILLER_21_385
*1407 FILLER_21_391
*1408 FILLER_21_396
*1409 FILLER_21_412
*1410 FILLER_21_420
*1411 FILLER_22_1
*1412 FILLER_22_33
*1413 FILLER_22_65
*1414 FILLER_22_97
*1415 FILLER_22_129
*1416 FILLER_22_161
*1417 FILLER_22_169
*1418 FILLER_22_174
*1419 FILLER_22_179
*1420 FILLER_22_188
*1421 FILLER_22_193
*1422 FILLER_22_225
*1423 FILLER_22_244
*1424 FILLER_22_250
*1425 FILLER_22_258
*1426 FILLER_22_262
*1427 FILLER_22_274
*1428 FILLER_22_282
*1429 FILLER_22_314
*1430 FILLER_22_322
*1431 FILLER_22_330
*1432 FILLER_22_332
*1433 FILLER_22_340
*1434 FILLER_22_372
*1435 FILLER_22_385
*1436 FILLER_22_393
*1437 FILLER_22_397
*1438 FILLER_22_413
*1439 FILLER_23_1
*1440 FILLER_23_33
*1441 FILLER_23_65
*1442 FILLER_23_97
*1443 FILLER_23_129
*1444 FILLER_23_133
*1445 FILLER_23_135
*1446 FILLER_23_153
*1447 FILLER_23_158
*1448 FILLER_23_163
*1449 FILLER_23_195
*1450 FILLER_23_227
*1451 FILLER_23_243
*1452 FILLER_23_247
*1453 FILLER_23_252
*1454 FILLER_23_271
*1455 FILLER_23_276
*1456 FILLER_23_285
*1457 FILLER_23_301
*1458 FILLER_23_309
*1459 FILLER_23_313
*1460 FILLER_23_315
*1461 FILLER_23_318
*1462 FILLER_23_329
*1463 FILLER_23_336
*1464 FILLER_23_368
*1465 FILLER_23_372
*1466 FILLER_23_377
*1467 FILLER_23_385
*1468 FILLER_23_404
*1469 FILLER_23_420
*1470 FILLER_24_1
*1471 FILLER_24_33
*1472 FILLER_24_65
*1473 FILLER_24_97
*1474 FILLER_24_129
*1475 FILLER_24_137
*1476 FILLER_24_141
*1477 FILLER_24_149
*1478 FILLER_24_155
*1479 FILLER_24_187
*1480 FILLER_24_219
*1481 FILLER_24_227
*1482 FILLER_24_259
*1483 FILLER_24_261
*1484 FILLER_24_266
*1485 FILLER_24_274
*1486 FILLER_24_282
*1487 FILLER_24_286
*1488 FILLER_24_290
*1489 FILLER_24_298
*1490 FILLER_24_302
*1491 FILLER_24_305
*1492 FILLER_24_313
*1493 FILLER_24_317
*1494 FILLER_24_321
*1495 FILLER_24_328
*1496 FILLER_24_360
*1497 FILLER_24_368
*1498 FILLER_24_372
*1499 FILLER_24_378
*1500 FILLER_24_389
*1501 FILLER_25_1
*1502 FILLER_25_20
*1503 FILLER_25_52
*1504 FILLER_25_84
*1505 FILLER_25_116
*1506 FILLER_25_148
*1507 FILLER_25_180
*1508 FILLER_25_212
*1509 FILLER_25_231
*1510 FILLER_25_236
*1511 FILLER_25_268
*1512 FILLER_25_276
*1513 FILLER_25_281
*1514 FILLER_25_313
*1515 FILLER_25_321
*1516 FILLER_25_335
*1517 FILLER_25_367
*1518 FILLER_25_399
*1519 FILLER_25_415
*1520 FILLER_25_419
*1521 FILLER_26_1
*1522 FILLER_26_33
*1523 FILLER_26_65
*1524 FILLER_26_97
*1525 FILLER_26_129
*1526 FILLER_26_161
*1527 FILLER_26_177
*1528 FILLER_26_185
*1529 FILLER_26_187
*1530 FILLER_26_191
*1531 FILLER_26_199
*1532 FILLER_26_203
*1533 FILLER_26_206
*1534 FILLER_26_217
*1535 FILLER_26_221
*1536 FILLER_26_225
*1537 FILLER_26_257
*1538 FILLER_26_289
*1539 FILLER_26_321
*1540 FILLER_26_329
*1541 FILLER_26_331
*1542 FILLER_26_335
*1543 FILLER_26_343
*1544 FILLER_26_349
*1545 FILLER_26_381
*1546 FILLER_26_397
*1547 FILLER_26_401
*1548 FILLER_26_404
*1549 FILLER_26_420
*1550 FILLER_27_1
*1551 FILLER_27_33
*1552 FILLER_27_65
*1553 FILLER_27_97
*1554 FILLER_27_129
*1555 FILLER_27_161
*1556 FILLER_27_165
*1557 FILLER_27_169
*1558 FILLER_27_171
*1559 FILLER_27_175
*1560 FILLER_27_207
*1561 FILLER_27_215
*1562 FILLER_27_217
*1563 FILLER_27_221
*1564 FILLER_27_253
*1565 FILLER_27_269
*1566 FILLER_27_277
*1567 FILLER_27_279
*1568 FILLER_27_286
*1569 FILLER_27_318
*1570 FILLER_27_325
*1571 FILLER_27_341
*1572 FILLER_27_355
*1573 FILLER_27_359
*1574 FILLER_27_363
*1575 FILLER_27_372
*1576 FILLER_27_388
*1577 FILLER_27_396
*1578 FILLER_27_404
*1579 FILLER_27_420
*1580 FILLER_28_1
*1581 FILLER_28_33
*1582 FILLER_28_65
*1583 FILLER_28_97
*1584 FILLER_28_129
*1585 FILLER_28_178
*1586 FILLER_28_184
*1587 FILLER_28_189
*1588 FILLER_28_205
*1589 FILLER_28_213
*1590 FILLER_28_217
*1591 FILLER_28_219
*1592 FILLER_28_225
*1593 FILLER_28_257
*1594 FILLER_28_273
*1595 FILLER_28_279
*1596 FILLER_28_311
*1597 FILLER_28_343
*1598 FILLER_28_351
*1599 FILLER_28_355
*1600 FILLER_28_374
*1601 FILLER_28_379
*1602 FILLER_28_387
*1603 FILLER_28_389
*1604 FILLER_28_407
*1605 FILLER_28_412
*1606 FILLER_28_420
*1607 FILLER_29_1
*1608 FILLER_29_33
*1609 FILLER_29_65
*1610 FILLER_29_97
*1611 FILLER_29_129
*1612 FILLER_29_161
*1613 FILLER_29_177
*1614 FILLER_29_185
*1615 FILLER_29_187
*1616 FILLER_29_193
*1617 FILLER_29_209
*1618 FILLER_29_217
*1619 FILLER_29_223
*1620 FILLER_29_239
*1621 FILLER_29_247
*1622 FILLER_29_249
*1623 FILLER_29_254
*1624 FILLER_29_259
*1625 FILLER_29_261
*1626 FILLER_29_267
*1627 FILLER_29_276
*1628 FILLER_29_288
*1629 FILLER_29_320
*1630 FILLER_29_322
*1631 FILLER_29_328
*1632 FILLER_29_360
*1633 FILLER_29_362
*1634 FILLER_29_367
*1635 FILLER_29_383
*1636 FILLER_29_391
*1637 FILLER_29_397
*1638 FILLER_29_402
*1639 FILLER_29_418
*1640 FILLER_29_420
*1641 FILLER_30_1
*1642 FILLER_30_33
*1643 FILLER_30_65
*1644 FILLER_30_97
*1645 FILLER_30_129
*1646 FILLER_30_145
*1647 FILLER_30_153
*1648 FILLER_30_157
*1649 FILLER_30_159
*1650 FILLER_30_162
*1651 FILLER_30_170
*1652 FILLER_30_174
*1653 FILLER_30_182
*1654 FILLER_30_231
*1655 FILLER_30_239
*1656 FILLER_30_243
*1657 FILLER_30_262
*1658 FILLER_30_267
*1659 FILLER_30_275
*1660 FILLER_30_279
*1661 FILLER_30_284
*1662 FILLER_30_288
*1663 FILLER_30_304
*1664 FILLER_30_312
*1665 FILLER_30_316
*1666 FILLER_30_321
*1667 FILLER_30_326
*1668 FILLER_30_358
*1669 FILLER_30_390
*1670 FILLER_30_406
*1671 FILLER_30_414
*1672 FILLER_30_418
*1673 FILLER_30_420
*1674 FILLER_31_1
*1675 FILLER_31_33
*1676 FILLER_31_65
*1677 FILLER_31_97
*1678 FILLER_31_129
*1679 FILLER_31_161
*1680 FILLER_31_193
*1681 FILLER_31_225
*1682 FILLER_31_227
*1683 FILLER_31_230
*1684 FILLER_31_262
*1685 FILLER_31_270
*1686 FILLER_31_274
*1687 FILLER_31_293
*1688 FILLER_31_309
*1689 FILLER_31_313
*1690 FILLER_31_332
*1691 FILLER_31_337
*1692 FILLER_31_369
*1693 FILLER_31_401
*1694 FILLER_31_417
*1695 FILLER_32_1
*1696 FILLER_32_20
*1697 FILLER_32_52
*1698 FILLER_32_84
*1699 FILLER_32_116
*1700 FILLER_32_148
*1701 FILLER_32_164
*1702 FILLER_32_172
*1703 FILLER_32_178
*1704 FILLER_32_182
*1705 FILLER_32_186
*1706 FILLER_32_218
*1707 FILLER_32_226
*1708 FILLER_32_233
*1709 FILLER_32_265
*1710 FILLER_32_273
*1711 FILLER_32_277
*1712 FILLER_32_279
*1713 FILLER_32_287
*1714 FILLER_32_292
*1715 FILLER_32_308
*1716 FILLER_32_316
*1717 FILLER_32_320
*1718 FILLER_32_322
*1719 FILLER_32_326
*1720 FILLER_32_342
*1721 FILLER_32_350
*1722 FILLER_32_356
*1723 FILLER_32_388
*1724 FILLER_32_420
*1725 FILLER_33_1
*1726 FILLER_33_33
*1727 FILLER_33_65
*1728 FILLER_33_97
*1729 FILLER_33_129
*1730 FILLER_33_161
*1731 FILLER_33_165
*1732 FILLER_33_172
*1733 FILLER_33_174
*1734 FILLER_33_178
*1735 FILLER_33_185
*1736 FILLER_33_192
*1737 FILLER_33_208
*1738 FILLER_33_216
*1739 FILLER_33_220
*1740 FILLER_33_228
*1741 FILLER_33_260
*1742 FILLER_33_292
*1743 FILLER_33_324
*1744 FILLER_33_340
*1745 FILLER_33_351
*1746 FILLER_33_366
*1747 FILLER_33_398
*1748 FILLER_33_414
*1749 FILLER_33_418
*1750 FILLER_33_420
*1751 FILLER_34_1
*1752 FILLER_34_33
*1753 FILLER_34_65
*1754 FILLER_34_97
*1755 FILLER_34_129
*1756 FILLER_34_145
*1757 FILLER_34_153
*1758 FILLER_34_159
*1759 FILLER_34_163
*1760 FILLER_34_165
*1761 FILLER_34_171
*1762 FILLER_34_187
*1763 FILLER_34_189
*1764 FILLER_34_196