*SPEF "ieee 1481-1999"
*DESIGN "gcd"
*DATE "17:35:16 Monday June 02, 2025"
*VENDOR "The OpenROAD Project"
*PROGRAM "OpenROAD"
*VERSION "d51b22be4cdca4e7ab55ad19f6fe407116325f35"
*DESIGN_FLOW "NAME_SCOPE LOCAL" "PIN_CAP NONE"
*DIVIDER /
*DELIMITER :
*BUS_DELIMITER []
*T_UNIT 1 NS
*C_UNIT 1 PF
*R_UNIT 1 OHM
*L_UNIT 1 HENRY

*NAME_MAP
*1 _000_
*2 _001_
*3 _002_
*4 _003_
*5 _004_
*6 _005_
*7 _006_
*8 _007_
*9 _008_
*10 _009_
*11 _010_
*12 _011_
*13 _012_
*14 _013_
*15 _014_
*16 _015_
*17 _016_
*18 _017_
*19 _018_
*20 _019_
*21 _020_
*22 _021_
*23 _022_
*24 _023_
*25 _024_
*26 _025_
*27 _026_
*28 _027_
*29 _028_
*30 _029_
*31 _030_
*32 _031_
*33 _032_
*34 _033_
*35 _034_
*36 _035_
*37 _036_
*38 net8
*39 _038_
*40 _039_
*41 _040_
*42 _041_
*43 _042_
*44 _043_
*45 _044_
*46 _045_
*47 _046_
*48 _047_
*49 _048_
*50 _049_
*51 _050_
*52 _051_
*53 _052_
*54 _053_
*55 _054_
*56 _055_
*57 _056_
*58 _057_
*59 _058_
*60 net7
*61 _060_
*62 _061_
*63 _062_
*64 _063_
*65 _064_
*66 _065_
*67 _066_
*68 _067_
*69 _068_
*70 _069_
*71 _070_
*72 _071_
*73 _072_
*74 _073_
*75 _074_
*76 _075_
*77 _076_
*78 _077_
*79 _078_
*80 _079_
*81 _080_
*82 _081_
*83 _082_
*84 _083_
*85 _084_
*86 _085_
*87 _086_
*88 _087_
*89 _088_
*90 _089_
*91 _090_
*92 _091_
*93 _092_
*94 _093_
*95 _094_
*96 _095_
*97 _096_
*98 _097_
*99 _098_
*100 _099_
*101 _100_
*102 _101_
*103 _102_
*104 _103_
*105 _104_
*106 _105_
*107 _106_
*108 _107_
*109 _108_
*110 _109_
*111 _110_
*112 _111_
*113 _112_
*114 _113_
*115 _114_
*116 _115_
*117 _116_
*118 _117_
*119 _118_
*120 _119_
*121 _120_
*122 _121_
*123 _122_
*124 _123_
*125 _124_
*126 _125_
*127 _126_
*128 _127_
*129 _128_
*130 _129_
*131 _130_
*132 _131_
*133 _132_
*134 _133_
*135 _134_
*136 _135_
*137 _136_
*138 _137_
*139 _138_
*140 _139_
*141 _140_
*142 _141_
*143 _142_
*144 _143_
*145 _144_
*146 _145_
*147 _146_
*148 _147_
*149 _148_
*150 _149_
*151 _150_
*152 _151_
*153 _152_
*154 _153_
*155 _154_
*156 _155_
*157 _156_
*158 _157_
*159 _158_
*160 _159_
*161 _160_
*162 _161_
*163 _162_
*164 _163_
*165 _164_
*166 _165_
*167 net6
*168 _167_
*169 _168_
*170 net5
*171 net4
*172 net3
*173 _172_
*174 net2
*175 _174_
*176 net1
*177 _176_
*178 _177_
*179 _178_
*180 _179_
*181 _180_
*182 _181_
*183 _182_
*184 _183_
*185 _184_
*186 _185_
*187 _186_
*188 _187_
*189 _188_
*190 clknet_2_3__leaf_clk
*191 _190_
*192 _191_
*193 clknet_2_2__leaf_clk
*194 _193_
*195 _194_
*196 _195_
*197 _196_
*198 _197_
*199 _198_
*200 _199_
*201 _200_
*202 clknet_2_1__leaf_clk
*203 clknet_2_0__leaf_clk
*204 _203_
*205 _204_
*206 _205_
*207 _206_
*208 _207_
*209 _208_
*210 _209_
*211 _210_
*212 _211_
*213 _212_
*214 _213_
*215 _214_
*216 _215_
*217 _216_
*218 _217_
*219 _218_
*220 _219_
*221 _220_
*222 _221_
*223 _222_
*224 _223_
*225 _224_
*226 _225_
*227 _226_
*228 _227_
*229 _228_
*230 _229_
*231 _230_
*232 _231_
*233 _232_
*234 _233_
*235 clknet_0_clk
*236 _235_
*237 _236_
*239 _238_
*240 _239_
*241 _240_
*243 _242_
*244 _243_
*245 _244_
*246 _245_
*247 _246_
*248 _247_
*249 _248_
*250 _249_
*251 _250_
*252 _251_
*253 _252_
*254 _253_
*255 _254_
*256 _255_
*257 _256_
*258 _257_
*259 _258_
*260 _259_
*261 _260_
*262 _261_
*263 _262_
*264 _263_
*265 _264_
*266 _265_
*267 _266_
*268 _267_
*269 _268_
*270 _269_
*271 _270_
*272 _271_
*273 _272_
*274 _273_
*275 _274_
*276 _275_
*277 _276_
*278 _277_
*279 _278_
*280 _279_
*281 _280_
*282 _281_
*283 _282_
*284 _283_
*285 _284_
*286 _285_
*287 _286_
*288 _287_
*289 _288_
*290 _289_
*291 _290_
*292 _291_
*293 _292_
*294 _293_
*295 _294_
*296 _295_
*297 _296_
*298 _297_
*299 _298_
*300 _299_
*301 _300_
*302 _301_
*303 _302_
*304 _303_
*305 _304_
*306 _305_
*307 _306_
*308 _307_
*309 _308_
*310 _309_
*311 _310_
*312 _311_
*313 _312_
*314 _313_
*315 _314_
*316 _315_
*317 _316_
*318 _317_
*319 _318_
*320 _319_
*321 _320_
*322 _321_
*323 _322_
*324 _323_
*325 _324_
*326 _325_
*327 _326_
*328 _327_
*329 _328_
*330 _329_
*331 _330_
*332 _331_
*333 _332_
*334 _333_
*335 _334_
*336 _335_
*337 _336_
*338 _337_
*339 _338_
*340 _339_
*341 _340_
*342 _341_
*343 _342_
*344 _343_
*345 _344_
*346 clk
*347 ctrl\.state\.out\[1\]
*348 ctrl\.state\.out\[2\]
*349 dpath\.a_lt_b\$in0\[0\]
*350 dpath\.a_lt_b\$in0\[10\]
*351 dpath\.a_lt_b\$in0\[11\]
*352 dpath\.a_lt_b\$in0\[12\]
*353 dpath\.a_lt_b\$in0\[13\]
*354 dpath\.a_lt_b\$in0\[14\]
*355 dpath\.a_lt_b\$in0\[15\]
*356 dpath\.a_lt_b\$in0\[1\]
*357 dpath\.a_lt_b\$in0\[2\]
*358 dpath\.a_lt_b\$in0\[3\]
*359 dpath\.a_lt_b\$in0\[4\]
*360 dpath\.a_lt_b\$in0\[5\]
*361 dpath\.a_lt_b\$in0\[6\]
*362 dpath\.a_lt_b\$in0\[7\]
*363 dpath\.a_lt_b\$in0\[8\]
*364 dpath\.a_lt_b\$in0\[9\]
*365 dpath\.a_lt_b\$in1\[0\]
*366 dpath\.a_lt_b\$in1\[10\]
*367 dpath\.a_lt_b\$in1\[11\]
*368 dpath\.a_lt_b\$in1\[12\]
*369 dpath\.a_lt_b\$in1\[13\]
*370 dpath\.a_lt_b\$in1\[14\]
*371 dpath\.a_lt_b\$in1\[15\]
*372 dpath\.a_lt_b\$in1\[1\]
*373 dpath\.a_lt_b\$in1\[2\]
*374 dpath\.a_lt_b\$in1\[3\]
*375 dpath\.a_lt_b\$in1\[4\]
*376 dpath\.a_lt_b\$in1\[5\]
*377 dpath\.a_lt_b\$in1\[6\]
*378 dpath\.a_lt_b\$in1\[7\]
*379 dpath\.a_lt_b\$in1\[8\]
*380 dpath\.a_lt_b\$in1\[9\]
*381 req_msg[0]
*382 req_msg[10]
*383 req_msg[11]
*384 req_msg[12]
*385 req_msg[13]
*386 req_msg[14]
*387 req_msg[15]
*388 req_msg[16]
*389 req_msg[17]
*390 req_msg[18]
*391 req_msg[19]
*392 req_msg[1]
*393 req_msg[20]
*394 req_msg[21]
*395 req_msg[22]
*396 req_msg[23]
*397 req_msg[24]
*398 req_msg[25]
*399 req_msg[26]
*400 req_msg[27]
*401 req_msg[28]
*402 req_msg[29]
*403 req_msg[2]
*404 req_msg[30]
*405 req_msg[31]
*406 req_msg[3]
*407 req_msg[4]
*408 req_msg[5]
*409 req_msg[6]
*410 req_msg[7]
*411 req_msg[8]
*412 req_msg[9]
*413 req_rdy
*414 req_val
*415 reset
*416 resp_msg[0]
*417 resp_msg[10]
*418 resp_msg[11]
*419 resp_msg[12]
*420 resp_msg[13]
*421 resp_msg[14]
*422 resp_msg[15]
*423 resp_msg[1]
*424 resp_msg[2]
*425 resp_msg[3]
*426 resp_msg[4]
*427 resp_msg[5]
*428 resp_msg[6]
*429 resp_msg[7]
*430 resp_msg[8]
*431 resp_msg[9]
*432 resp_rdy
*433 resp_val
*434 net9
*435 net10
*436 net11
*437 net12
*438 net14
*439 net15
*440 net16
*441 net17
*442 net18
*443 net22
*444 net23
*445 net24
*446 net25
*447 net85
*448 net86
*449 net87
*450 net176
*451 net193
*452 _345_
*453 PHY_EDGE_ROW_14_Right_14
*454 _347_
*455 _348_
*456 _349_
*457 _350_
*458 _351_
*459 _352_
*460 _353_
*461 _354_
*462 _355_
*463 _356_
*464 _357_
*465 _358_
*466 _359_
*467 _360_
*468 _361_
*469 _362_
*470 _363_
*471 _364_
*472 _365_
*473 _366_
*474 _367_
*475 PHY_EDGE_ROW_13_Right_13
*476 _369_
*477 _370_
*478 _371_
*479 _372_
*480 _373_
*481 _374_
*482 _375_
*483 _376_
*484 _377_
*485 _378_
*486 _379_
*487 _380_
*488 _381_
*489 _382_
*490 _383_
*491 _384_
*492 _385_
*493 _386_
*494 _387_
*495 _388_
*496 _389_
*497 _390_
*498 _391_
*499 _392_
*500 _393_
*501 _394_
*502 _395_
*503 _396_
*504 _397_
*505 _398_
*506 _399_
*507 _400_
*508 _401_
*509 _402_
*510 _403_
*511 _404_
*512 _405_
*513 _406_
*514 _407_
*515 _408_
*516 _409_
*517 _410_
*518 _411_
*519 _412_
*520 _413_
*521 _414_
*522 _415_
*523 _416_
*524 _417_
*525 _418_
*526 _419_
*527 _420_
*528 _421_
*529 _422_
*530 _423_
*531 _424_
*532 _425_
*533 _426_
*534 _427_
*535 _428_
*536 _429_
*537 _430_
*538 _431_
*539 _432_
*540 _433_
*541 _434_
*542 _435_
*543 _436_
*544 _437_
*545 _438_
*546 _439_
*547 _440_
*548 _441_
*549 _442_
*550 _443_
*551 _444_
*552 _445_
*553 _446_
*554 _447_
*555 _448_
*556 _449_
*557 _450_
*558 _451_
*559 _452_
*560 _453_
*561 _454_
*562 _455_
*563 _456_
*564 _457_
*565 _458_
*566 _459_
*567 _460_
*568 _461_
*569 _462_
*570 _463_
*571 _464_
*572 _465_
*573 _466_
*574 _467_
*575 _468_
*576 _469_
*577 _470_
*578 _471_
*579 _472_
*580 _473_
*581 _474_
*582 _475_
*583 _476_
*584 _477_
*585 _478_
*586 _479_
*587 _480_
*588 _481_
*589 _482_
*590 _483_
*591 _484_
*592 _485_
*593 _486_
*594 _487_
*595 _488_
*596 _489_
*597 _490_
*598 PHY_EDGE_ROW_12_Right_12
*599 _492_
*600 _493_
*601 PHY_EDGE_ROW_11_Right_11
*602 PHY_EDGE_ROW_10_Right_10
*603 PHY_EDGE_ROW_9_Right_9
*604 _497_
*605 _498_
*606 PHY_EDGE_ROW_8_Right_8
*607 _500_
*608 _501_
*609 PHY_EDGE_ROW_7_Right_7
*610 _503_
*611 _504_
*612 _505_
*613 _506_
*614 _507_
*615 _508_
*616 _509_
*617 _510_
*618 _511_
*619 _512_
*620 _513_
*621 _514_
*622 _515_
*623 _516_
*624 _517_
*625 PHY_EDGE_ROW_6_Right_6
*626 _519_
*627 _520_
*628 PHY_EDGE_ROW_5_Right_5
*629 _522_
*630 _523_
*631 _524_
*632 _525_
*633 _526_
*634 _527_
*635 _528_
*636 _529_
*637 _530_
*638 _531_
*639 _532_
*640 _533_
*641 PHY_EDGE_ROW_4_Right_4
*642 PHY_EDGE_ROW_3_Right_3
*643 _536_
*644 _537_
*645 _538_
*646 _539_
*647 _540_
*648 _541_
*649 _542_
*650 _543_
*651 _544_
*652 _545_
*653 _546_
*654 _547_
*655 _548_
*656 _549_
*657 _550_
*658 _551_
*659 _552_
*660 _553_
*661 _554_
*662 _555_
*663 _556_
*664 _557_
*665 _558_
*666 _559_
*667 _560_
*668 _561_
*669 _562_
*670 _563_
*671 _564_
*672 _565_
*673 _566_
*674 _567_
*675 _568_
*676 _569_
*677 _570_
*678 _571_
*679 _572_
*680 _573_
*681 _574_
*682 _575_
*683 _576_
*684 _577_
*685 _578_
*686 PHY_EDGE_ROW_2_Right_2
*687 _580_
*688 _581_
*689 PHY_EDGE_ROW_1_Right_1
*690 _583_
*691 _584_
*692 _585_
*693 PHY_EDGE_ROW_0_Right_0
*694 _587_
*695 _588_
*696 _589_
*697 _590_
*698 _591_
*699 _592_
*700 _593_
*701 _594_
*702 _595_
*703 _596_
*704 _597_
*705 _598_
*706 _599_
*707 _600_
*708 _601_
*709 _602_
*710 _603_
*711 _604_
*712 _605_
*713 _606_
*714 _607_
*715 _608_
*716 _609_
*717 _610_
*718 _611_
*719 _612_
*720 _613_
*721 _614_
*722 _615_
*723 _616_
*724 _617_
*725 _618_
*726 _619_
*727 _620_
*728 _621_
*729 _622_
*730 _623_
*731 _624_
*732 _625_
*733 _626_
*734 _627_
*735 _628_
*736 _629_
*737 _630_
*738 _631_
*739 _632_
*740 _633_
*741 _634_
*742 _635_
*743 _636_
*744 _637_
*745 _638_
*746 _639_
*747 _640_
*748 _641_
*749 _642_
*750 _643_
*751 _644_
*752 _645_
*753 _646_
*754 _647_
*755 _648_
*756 _649_
*757 _650_
*758 _651_
*759 _652_
*760 _653_
*761 _654_
*762 _655_
*763 _656_
*764 _657_
*765 _658_
*766 _659_
*767 _660_
*768 _661_
*769 _662_
*770 _663_
*771 _664_
*772 _665_
*773 _666_
*774 _667_
*775 _668_
*776 _669_
*777 _670_
*778 _671_
*779 _672_
*780 _673_
*781 _674_
*782 _675_
*783 _676_
*784 _677_
*785 _678_
*786 _679_
*787 _680_
*788 _681_
*789 _682_
*790 _683_
*791 _684_
*792 _685_
*793 _686_
*794 _687_
*795 _688_
*796 _689_
*797 _690_
*798 _691_
*799 _692_
*800 _693_
*801 _694_
*802 _695_
*803 _696_
*804 _697_
*805 _698_
*806 _699_
*807 _700_
*808 _701_
*809 _702_
*810 _703_
*811 _704_
*812 _705_
*813 _706_
*814 PHY_EDGE_ROW_15_Right_15
*815 PHY_EDGE_ROW_16_Right_16
*816 PHY_EDGE_ROW_17_Right_17
*817 PHY_EDGE_ROW_18_Right_18
*818 PHY_EDGE_ROW_19_Right_19
*819 PHY_EDGE_ROW_20_Right_20
*820 PHY_EDGE_ROW_21_Right_21
*821 PHY_EDGE_ROW_22_Right_22
*822 PHY_EDGE_ROW_23_Right_23
*823 PHY_EDGE_ROW_24_Right_24
*824 PHY_EDGE_ROW_25_Right_25
*825 PHY_EDGE_ROW_26_Right_26
*826 PHY_EDGE_ROW_27_Right_27
*827 PHY_EDGE_ROW_28_Right_28
*828 PHY_EDGE_ROW_29_Right_29
*829 PHY_EDGE_ROW_30_Right_30
*830 PHY_EDGE_ROW_31_Right_31
*831 PHY_EDGE_ROW_32_Right_32
*832 PHY_EDGE_ROW_33_Right_33
*833 PHY_EDGE_ROW_34_Right_34
*834 PHY_EDGE_ROW_35_Right_35
*835 PHY_EDGE_ROW_36_Right_36
*836 PHY_EDGE_ROW_37_Right_37
*837 PHY_EDGE_ROW_38_Right_38
*838 PHY_EDGE_ROW_39_Right_39
*839 PHY_EDGE_ROW_40_Right_40
*840 PHY_EDGE_ROW_41_Right_41
*841 PHY_EDGE_ROW_42_Right_42
*842 PHY_EDGE_ROW_43_Right_43
*843 PHY_EDGE_ROW_44_Right_44
*844 PHY_EDGE_ROW_45_Right_45
*845 PHY_EDGE_ROW_46_Right_46
*846 PHY_EDGE_ROW_47_Right_47
*847 PHY_EDGE_ROW_48_Right_48
*848 PHY_EDGE_ROW_49_Right_49
*849 PHY_EDGE_ROW_50_Right_50
*850 PHY_EDGE_ROW_51_Right_51
*851 PHY_EDGE_ROW_52_Right_52
*852 PHY_EDGE_ROW_53_Right_53
*853 PHY_EDGE_ROW_54_Right_54
*854 PHY_EDGE_ROW_55_Right_55
*855 PHY_EDGE_ROW_56_Right_56
*856 PHY_EDGE_ROW_0_Left_57
*857 PHY_EDGE_ROW_1_Left_58
*858 PHY_EDGE_ROW_2_Left_59
*859 PHY_EDGE_ROW_3_Left_60
*860 PHY_EDGE_ROW_4_Left_61
*861 PHY_EDGE_ROW_5_Left_62
*862 PHY_EDGE_ROW_6_Left_63
*863 PHY_EDGE_ROW_7_Left_64
*864 PHY_EDGE_ROW_8_Left_65
*865 PHY_EDGE_ROW_9_Left_66
*866 PHY_EDGE_ROW_10_Left_67
*867 PHY_EDGE_ROW_11_Left_68
*868 PHY_EDGE_ROW_12_Left_69
*869 PHY_EDGE_ROW_13_Left_70
*870 PHY_EDGE_ROW_14_Left_71
*871 PHY_EDGE_ROW_15_Left_72
*872 PHY_EDGE_ROW_16_Left_73
*873 PHY_EDGE_ROW_17_Left_74
*874 PHY_EDGE_ROW_18_Left_75
*875 PHY_EDGE_ROW_19_Left_76
*876 PHY_EDGE_ROW_20_Left_77
*877 PHY_EDGE_ROW_21_Left_78
*878 PHY_EDGE_ROW_22_Left_79
*879 PHY_EDGE_ROW_23_Left_80
*880 PHY_EDGE_ROW_24_Left_81
*881 PHY_EDGE_ROW_25_Left_82
*882 PHY_EDGE_ROW_26_Left_83
*883 PHY_EDGE_ROW_27_Left_84
*884 PHY_EDGE_ROW_28_Left_85
*885 PHY_EDGE_ROW_29_Left_86
*886 PHY_EDGE_ROW_30_Left_87
*887 PHY_EDGE_ROW_31_Left_88
*888 PHY_EDGE_ROW_32_Left_89
*889 PHY_EDGE_ROW_33_Left_90
*890 PHY_EDGE_ROW_34_Left_91
*891 PHY_EDGE_ROW_35_Left_92
*892 PHY_EDGE_ROW_36_Left_93
*893 PHY_EDGE_ROW_37_Left_94
*894 PHY_EDGE_ROW_38_Left_95
*895 PHY_EDGE_ROW_39_Left_96
*896 PHY_EDGE_ROW_40_Left_97
*897 PHY_EDGE_ROW_41_Left_98
*898 PHY_EDGE_ROW_42_Left_99
*899 PHY_EDGE_ROW_43_Left_100
*900 PHY_EDGE_ROW_44_Left_101
*901 PHY_EDGE_ROW_45_Left_102
*902 PHY_EDGE_ROW_46_Left_103
*903 PHY_EDGE_ROW_47_Left_104
*904 PHY_EDGE_ROW_48_Left_105
*905 PHY_EDGE_ROW_49_Left_106
*906 PHY_EDGE_ROW_50_Left_107
*907 PHY_EDGE_ROW_51_Left_108
*908 PHY_EDGE_ROW_52_Left_109
*909 PHY_EDGE_ROW_53_Left_110
*910 PHY_EDGE_ROW_54_Left_111
*911 PHY_EDGE_ROW_55_Left_112
*912 PHY_EDGE_ROW_56_Left_113
*913 clkbuf_0_clk
*914 clkbuf_2_0__f_clk
*915 clkbuf_2_1__f_clk
*916 clkbuf_2_2__f_clk
*917 clkbuf_2_3__f_clk
*918 clkload0
*919 clkload1
*920 rebuffer1
*921 rebuffer2
*922 rebuffer3
*923 rebuffer4
*924 rebuffer5
*925 rebuffer6
*926 rebuffer7
*927 rebuffer8
*928 rebuffer9
*929 rebuffer10
*930 rebuffer11
*931 rebuffer12
*932 rebuffer14
*933 rebuffer15
*934 rebuffer16
*935 rebuffer17
*936 rebuffer18
*937 split22
*938 rebuffer23
*939 rebuffer24
*940 rebuffer25
*941 split85
*942 rebuffer86
*943 rebuffer87
*944 rebuffer176
*945 rebuffer193
*946 FILLER_0_1
*947 FILLER_0_33
*948 FILLER_0_65
*949 FILLER_0_97
*950 FILLER_0_129
*951 FILLER_0_161
*952 FILLER_0_193
*953 FILLER_0_225
*954 FILLER_0_257
*955 FILLER_0_289
*956 FILLER_0_321
*957 FILLER_0_353
*958 FILLER_0_385
*959 FILLER_0_417
*960 FILLER_1_1
*961 FILLER_1_33
*962 FILLER_1_65
*963 FILLER_1_97
*964 FILLER_1_129
*965 FILLER_1_161
*966 FILLER_1_193
*967 FILLER_1_225
*968 FILLER_1_257
*969 FILLER_1_289
*970 FILLER_1_321
*971 FILLER_1_353
*972 FILLER_1_385
*973 FILLER_1_417
*974 FILLER_2_1
*975 FILLER_2_20
*976 FILLER_2_52
*977 FILLER_2_84
*978 FILLER_2_116
*979 FILLER_2_148
*980 FILLER_2_180
*981 FILLER_2_212
*982 FILLER_2_244
*983 FILLER_2_276
*984 FILLER_2_292
*985 FILLER_2_296
*986 FILLER_2_301
*987 FILLER_2_333
*988 FILLER_2_365
*989 FILLER_2_381
*990 FILLER_2_389
*991 FILLER_2_396
*992 FILLER_2_412
*993 FILLER_2_420
*994 FILLER_3_1
*995 FILLER_3_33
*996 FILLER_3_65
*997 FILLER_3_97
*998 FILLER_3_129
*999 FILLER_3_161
*1000 FILLER_3_193
*1001 FILLER_3_225
*1002 FILLER_3_257
*1003 FILLER_3_289
*1004 FILLER_3_321
*1005 FILLER_3_353
*1006 FILLER_3_385
*1007 FILLER_3_417
*1008 FILLER_4_1
*1009 FILLER_4_33
*1010 FILLER_4_65
*1011 FILLER_4_97
*1012 FILLER_4_129
*1013 FILLER_4_161
*1014 FILLER_4_193
*1015 FILLER_4_225
*1016 FILLER_4_257
*1017 FILLER_4_289
*1018 FILLER_4_321
*1019 FILLER_4_353
*1020 FILLER_4_385
*1021 FILLER_4_417
*1022 FILLER_5_1
*1023 FILLER_5_33
*1024 FILLER_5_65
*1025 FILLER_5_97
*1026 FILLER_5_129
*1027 FILLER_5_161
*1028 FILLER_5_193
*1029 FILLER_5_225
*1030 FILLER_5_257
*1031 FILLER_5_289
*1032 FILLER_5_321
*1033 FILLER_5_353
*1034 FILLER_5_385
*1035 FILLER_5_417
*1036 FILLER_6_1
*1037 FILLER_6_33
*1038 FILLER_6_65
*1039 FILLER_6_97
*1040 FILLER_6_129
*1041 FILLER_6_161
*1042 FILLER_6_193
*1043 FILLER_6_225
*1044 FILLER_6_257
*1045 FILLER_6_289
*1046 FILLER_6_321
*1047 FILLER_6_353
*1048 FILLER_6_385
*1049 FILLER_6_417
*1050 FILLER_7_1
*1051 FILLER_7_33
*1052 FILLER_7_65
*1053 FILLER_7_97
*1054 FILLER_7_129
*1055 FILLER_7_161
*1056 FILLER_7_193
*1057 FILLER_7_225
*1058 FILLER_7_257
*1059 FILLER_7_289
*1060 FILLER_7_321
*1061 FILLER_7_353
*1062 FILLER_7_385
*1063 FILLER_7_417
*1064 FILLER_8_1
*1065 FILLER_8_33
*1066 FILLER_8_65
*1067 FILLER_8_97
*1068 FILLER_8_129
*1069 FILLER_8_161
*1070 FILLER_8_193
*1071 FILLER_8_225
*1072 FILLER_8_257
*1073 FILLER_8_289
*1074 FILLER_8_321
*1075 FILLER_8_337
*1076 FILLER_8_341
*1077 FILLER_8_347
*1078 FILLER_8_379
*1079 FILLER_8_411
*1080 FILLER_8_419
*1081 FILLER_9_1
*1082 FILLER_9_33
*1083 FILLER_9_65
*1084 FILLER_9_97
*1085 FILLER_9_129
*1086 FILLER_9_145
*1087 FILLER_9_153
*1088 FILLER_9_158
*1089 FILLER_9_190
*1090 FILLER_9_198
*1091 FILLER_9_209
*1092 FILLER_9_241
*1093 FILLER_9_260
*1094 FILLER_9_276
*1095 FILLER_9_288
*1096 FILLER_9_292
*1097 FILLER_9_301
*1098 FILLER_9_317
*1099 FILLER_9_325
*1100 FILLER_9_344
*1101 FILLER_9_350
*1102 FILLER_9_366
*1103 FILLER_9_374
*1104 FILLER_9_385
*1105 FILLER_9_393
*1106 FILLER_9_409
*1107 FILLER_9_417
*1108 FILLER_10_1
*1109 FILLER_10_33
*1110 FILLER_10_65
*1111 FILLER_10_97
*1112 FILLER_10_129
*1113 FILLER_10_145
*1114 FILLER_10_153
*1115 FILLER_10_155
*1116 FILLER_10_160
*1117 FILLER_10_179
*1118 FILLER_10_195
*1119 FILLER_10_199
*1120 FILLER_10_218
*1121 FILLER_10_225
*1122 FILLER_10_257
*1123 FILLER_10_273
*1124 FILLER_10_277
*1125 FILLER_10_295
*1126 FILLER_10_302
*1127 FILLER_10_307
*1128 FILLER_10_339
*1129 FILLER_10_371
*1130 FILLER_10_375
*1131 FILLER_10_394
*1132 FILLER_10_410
*1133 FILLER_10_418
*1134 FILLER_10_420
*1135 FILLER_11_1
*1136 FILLER_11_33
*1137 FILLER_11_65
*1138 FILLER_11_97
*1139 FILLER_11_129
*1140 FILLER_11_137
*1141 FILLER_11_141
*1142 FILLER_11_149
*1143 FILLER_11_165
*1144 FILLER_11_170
*1145 FILLER_11_186
*1146 FILLER_11_194
*1147 FILLER_11_202
*1148 FILLER_11_208
*1149 FILLER_11_213
*1150 FILLER_11_245
*1151 FILLER_11_277
*1152 FILLER_11_296
*1153 FILLER_11_328
*1154 FILLER_11_360
*1155 FILLER_11_376
*1156 FILLER_11_380
*1157 FILLER_11_384
*1158 FILLER_11_390
*1159 FILLER_11_395
*1160 FILLER_11_411
*1161 FILLER_11_419
*1162 FILLER_12_1
*1163 FILLER_12_33
*1164 FILLER_12_65
*1165 FILLER_12_97
*1166 FILLER_12_129
*1167 FILLER_12_145
*1168 FILLER_12_150
*1169 FILLER_12_156
*1170 FILLER_12_188
*1171 FILLER_12_192
*1172 FILLER_12_224
*1173 FILLER_12_231
*1174 FILLER_12_235
*1175 FILLER_12_239
*1176 FILLER_12_243
*1177 FILLER_12_275
*1178 FILLER_12_283
*1179 FILLER_12_288
*1180 FILLER_12_294
*1181 FILLER_12_326
*1182 FILLER_12_334
*1183 FILLER_12_340
*1184 FILLER_12_345
*1185 FILLER_12_361
*1186 FILLER_12_369
*1187 FILLER_12_373
*1188 FILLER_12_377
*1189 FILLER_12_409
*1190 FILLER_12_417
*1191 FILLER_13_1
*1192 FILLER_13_33
*1193 FILLER_13_65
*1194 FILLER_13_97
*1195 FILLER_13_129
*1196 FILLER_13_137
*1197 FILLER_13_141
*1198 FILLER_13_160
*1199 FILLER_13_167
*1200 FILLER_13_183
*1201 FILLER_13_191
*1202 FILLER_13_193
*1203 FILLER_13_197
*1204 FILLER_13_205
*1205 FILLER_13_212
*1206 FILLER_13_216
*1207 FILLER_13_218
*1208 FILLER_13_226
*1209 FILLER_13_238
*1210 FILLER_13_242
*1211 FILLER_13_253
*1212 FILLER_13_257
*1213 FILLER_13_262
*1214 FILLER_13_266
*1215 FILLER_13_268
*1216 FILLER_13_279
*1217 FILLER_13_287
*1218 FILLER_13_291
*1219 FILLER_13_297
*1220 FILLER_13_313
*1221 FILLER_13_321
*1222 FILLER_13_325
*1223 FILLER_13_330
*1224 FILLER_13_349
*1225 FILLER_13_365
*1226 FILLER_13_373
*1227 FILLER_13_381
*1228 FILLER_13_387
*1229 FILLER_13_406
*1230 FILLER_13_414
*1231 FILLER_13_418
*1232 FILLER_13_420
*1233 FILLER_14_1
*1234 FILLER_14_33
*1235 FILLER_14_65
*1236 FILLER_14_97
*1237 FILLER_14_129
*1238 FILLER_14_161
*1239 FILLER_14_177
*1240 FILLER_14_185
*1241 FILLER_14_189
*1242 FILLER_14_191
*1243 FILLER_14_196
*1244 FILLER_14_204
*1245 FILLER_14_208
*1246 FILLER_14_212
*1247 FILLER_14_220
*1248 FILLER_14_224
*1249 FILLER_14_226
*1250 FILLER_14_230
*1251 FILLER_14_239
*1252 FILLER_14_248
*1253 FILLER_14_254
*1254 FILLER_14_270
*1255 FILLER_14_274
*1256 FILLER_14_278
*1257 FILLER_14_282
*1258 FILLER_14_314
*1259 FILLER_14_330
*1260 FILLER_14_338
*1261 FILLER_14_342
*1262 FILLER_14_347
*1263 FILLER_14_354
*1264 FILLER_14_370
*1265 FILLER_14_374
*1266 FILLER_14_376
*1267 FILLER_14_380
*1268 FILLER_14_396
*1269 FILLER_14_400
*1270 FILLER_14_406
*1271 FILLER_14_414
*1272 FILLER_14_418
*1273 FILLER_14_420
*1274 FILLER_15_1
*1275 FILLER_15_33
*1276 FILLER_15_65
*1277 FILLER_15_97
*1278 FILLER_15_129
*1279 FILLER_15_161
*1280 FILLER_15_169
*1281 FILLER_15_173
*1282 FILLER_15_181
*1283 FILLER_15_213
*1284 FILLER_15_245
*1285 FILLER_15_253
*1286 FILLER_15_266
*1287 FILLER_15_278
*1288 FILLER_15_285
*1289 FILLER_15_317
*1290 FILLER_15_325
*1291 FILLER_15_329
*1292 FILLER_15_340
*1293 FILLER_15_345
*1294 FILLER_15_377
*1295 FILLER_15_409
*1296 FILLER_15_417
*1297 FILLER_16_1
*1298 FILLER_16_33
*1299 FILLER_16_65
*1300 FILLER_16_97
*1301 FILLER_16_129
*1302 FILLER_16_161
*1303 FILLER_16_169
*1304 FILLER_16_187
*1305 FILLER_16_192
*1306 FILLER_16_208
*1307 FILLER_16_216
*1308 FILLER_16_220
*1309 FILLER_16_226
*1310 FILLER_16_258
*1311 FILLER_16_266
*1312 FILLER_16_272
*1313 FILLER_16_304
*1314 FILLER_16_336
*1315 FILLER_16_344
*1316 FILLER_16_348
*1317 FILLER_16_352
*1318 FILLER_16_384
*1319 FILLER_16_416
*1320 FILLER_16_420
*1321 FILLER_17_1
*1322 FILLER_17_33
*1323 FILLER_17_65
*1324 FILLER_17_97
*1325 FILLER_17_129
*1326 FILLER_17_161
*1327 FILLER_17_177
*1328 FILLER_17_182
*1329 FILLER_17_190
*1330 FILLER_17_196
*1331 FILLER_17_228
*1332 FILLER_17_260
*1333 FILLER_17_301
*1334 FILLER_17_307
*1335 FILLER_17_312
*1336 FILLER_17_317
*1337 FILLER_17_329
*1338 FILLER_17_361
*1339 FILLER_17_377
*1340 FILLER_17_385
*1341 FILLER_17_396
*1342 FILLER_17_412
*1343 FILLER_17_420
*1344 FILLER_18_1
*1345 FILLER_18_17
*1346 FILLER_18_21
*1347 FILLER_18_53
*1348 FILLER_18_85
*1349 FILLER_18_117
*1350 FILLER_18_149
*1351 FILLER_18_181
*1352 FILLER_18_197
*1353 FILLER_18_205
*1354 FILLER_18_218
*1355 FILLER_18_250
*1356 FILLER_18_282
*1357 FILLER_18_298
*1358 FILLER_18_309
*1359 FILLER_18_318
*1360 FILLER_18_325
*1361 FILLER_18_333
*1362 FILLER_18_344
*1363 FILLER_18_346
*1364 FILLER_18_351
*1365 FILLER_18_386
*1366 FILLER_18_398
*1367 FILLER_18_414
*1368 FILLER_18_418
*1369 FILLER_18_420
*1370 FILLER_19_1
*1371 FILLER_19_33
*1372 FILLER_19_65
*1373 FILLER_19_97
*1374 FILLER_19_129
*1375 FILLER_19_161
*1376 FILLER_19_193
*1377 FILLER_19_209
*1378 FILLER_19_212
*1379 FILLER_19_220
*1380 FILLER_19_224
*1381 FILLER_19_226
*1382 FILLER_19_231
*1383 FILLER_19_237
*1384 FILLER_19_246
*1385 FILLER_19_251
*1386 FILLER_19_283
*1387 FILLER_19_315
*1388 FILLER_19_326
*1389 FILLER_19_333
*1390 FILLER_19_340
*1391 FILLER_19_356
*1392 FILLER_19_364
*1393 FILLER_19_372
*1394 FILLER_19_404
*1395 FILLER_19_420
*1396 FILLER_20_1
*1397 FILLER_20_33
*1398 FILLER_20_65
*1399 FILLER_20_97
*1400 FILLER_20_129
*1401 FILLER_20_145
*1402 FILLER_20_153
*1403 FILLER_20_157
*1404 FILLER_20_159
*1405 FILLER_20_164
*1406 FILLER_20_172
*1407 FILLER_20_181
*1408 FILLER_20_187
*1409 FILLER_20_195
*1410 FILLER_20_227
*1411 FILLER_20_231
*1412 FILLER_20_233
*1413 FILLER_20_251
*1414 FILLER_20_283
*1415 FILLER_20_315
*1416 FILLER_20_323
*1417 FILLER_20_328
*1418 FILLER_20_360
*1419 FILLER_20_376
*1420 FILLER_20_388
*1421 FILLER_20_395
*1422 FILLER_20_411
*1423 FILLER_20_419
*1424 FILLER_21_1
*1425 FILLER_21_33
*1426 FILLER_21_65
*1427 FILLER_21_97
*1428 FILLER_21_129
*1429 FILLER_21_145
*1430 FILLER_21_153
*1431 FILLER_21_155
*1432 FILLER_21_173
*1433 FILLER_21_183
*1434 FILLER_21_191
*1435 FILLER_21_195
*1436 FILLER_21_201
*1437 FILLER_21_233
*1438 FILLER_21_249
*1439 FILLER_21_252
*1440 FILLER_21_256
*1441 FILLER_21_258
*1442 FILLER_21_262
*1443 FILLER_21_267
*1444 FILLER_21_299
*1445 FILLER_21_315
*1446 FILLER_21_323
*1447 FILLER_21_327
*1448 FILLER_21_331
*1449 FILLER_21_363
*1450 FILLER_21_379
*1451 FILLER_21_383
*1452 FILLER_21_388
*1453 FILLER_21_390
*1454 FILLER_21_394
*1455 FILLER_21_410
*1456 FILLER_21_418
*1457 FILLER_21_420
*1458 FILLER_22_1
*1459 FILLER_22_33
*1460 FILLER_22_65
*1461 FILLER_22_97
*1462 FILLER_22_129
*1463 FILLER_22_161
*1464 FILLER_22_172
*1465 FILLER_22_179
*1466 FILLER_22_194
*1467 FILLER_22_199
*1468 FILLER_22_231
*1469 FILLER_22_239
*1470 FILLER_22_244
*1471 FILLER_22_250
*1472 FILLER_22_258
*1473 FILLER_22_262
*1474 FILLER_22_274
*1475 FILLER_22_286
*1476 FILLER_22_325
*1477 FILLER_22_330
*1478 FILLER_22_332
*1479 FILLER_22_340
*1480 FILLER_22_372
*1481 FILLER_22_376
*1482 FILLER_22_385
*1483 FILLER_22_397
*1484 FILLER_22_401
*1485 FILLER_22_417
*1486 FILLER_23_1
*1487 FILLER_23_33
*1488 FILLER_23_65
*1489 FILLER_23_97
*1490 FILLER_23_129
*1491 FILLER_23_133
*1492 FILLER_23_135
*1493 FILLER_23_153
*1494 FILLER_23_158
*1495 FILLER_23_163
*1496 FILLER_23_195
*1497 FILLER_23_227
*1498 FILLER_23_243
*1499 FILLER_23_247
*1500 FILLER_23_252
*1501 FILLER_23_271
*1502 FILLER_23_276
*1503 FILLER_23_285
*1504 FILLER_23_290
*1505 FILLER_23_306
*1506 FILLER_23_314
*1507 FILLER_23_318
*1508 FILLER_23_329
*1509 FILLER_23_340
*1510 FILLER_23_356
*1511 FILLER_23_364
*1512 FILLER_23_368
*1513 FILLER_23_373
*1514 FILLER_23_385
*1515 FILLER_23_404
*1516 FILLER_23_420
*1517 FILLER_24_1
*1518 FILLER_24_33
*1519 FILLER_24_65
*1520 FILLER_24_97
*1521 FILLER_24_129
*1522 FILLER_24_137
*1523 FILLER_24_141
*1524 FILLER_24_149
*1525 FILLER_24_158
*1526 FILLER_24_190
*1527 FILLER_24_222
*1528 FILLER_24_230
*1529 FILLER_24_269
*1530 FILLER_24_277
*1531 FILLER_24_291
*1532 FILLER_24_296
*1533 FILLER_24_300
*1534 FILLER_24_302
*1535 FILLER_24_306
*1536 FILLER_24_310
*1537 FILLER_24_312
*1538 FILLER_24_316
*1539 FILLER_24_321
*1540 FILLER_24_332
*1541 FILLER_24_341
*1542 FILLER_24_348
*1543 FILLER_24_364
*1544 FILLER_24_372
*1545 FILLER_24_378
*1546 FILLER_24_389
*1547 FILLER_25_1
*1548 FILLER_25_20
*1549 FILLER_25_52
*1550 FILLER_25_84
*1551 FILLER_25_116
*1552 FILLER_25_148
*1553 FILLER_25_180
*1554 FILLER_25_212
*1555 FILLER_25_231
*1556 FILLER_25_236
*1557 FILLER_25_268
*1558 FILLER_25_276
*1559 FILLER_25_281
*1560 FILLER_25_313
*1561 FILLER_25_321
*1562 FILLER_25_335
*1563 FILLER_25_367
*1564 FILLER_25_399
*1565 FILLER_25_415
*1566 FILLER_25_419
*1567 FILLER_26_1
*1568 FILLER_26_33
*1569 FILLER_26_65
*1570 FILLER_26_97
*1571 FILLER_26_129
*1572 FILLER_26_161
*1573 FILLER_26_177
*1574 FILLER_26_185
*1575 FILLER_26_187
*1576 FILLER_26_191
*1577 FILLER_26_199
*1578 FILLER_26_203
*1579 FILLER_26_206
*1580 FILLER_26_217
*1581 FILLER_26_221
*1582 FILLER_26_225
*1583 FILLER_26_257
*1584 FILLER_26_289
*1585 FILLER_26_321
*1586 FILLER_26_329
*1587 FILLER_26_331
*1588 FILLER_26_335
*1589 FILLER_26_343
*1590 FILLER_26_350
*1591 FILLER_26_382
*1592 FILLER_26_398
*1593 FILLER_26_405
*1594 FILLER_27_1
*1595 FILLER_27_33
*1596 FILLER_27_65
*1597 FILLER_27_97
*1598 FILLER_27_129
*1599 FILLER_27_161
*1600 FILLER_27_165
*1601 FILLER_27_169
*1602 FILLER_27_171
*1603 FILLER_27_175
*1604 FILLER_27_207
*1605 FILLER_27_215
*1606 FILLER_27_217
*1607 FILLER_27_221
*1608 FILLER_27_253
*1609 FILLER_27_269
*1610 FILLER_27_277
*1611 FILLER_27_279
*1612 FILLER_27_290
*1613 FILLER_27_306
*1614 FILLER_27_314
*1615 FILLER_27_318
*1616 FILLER_27_329
*1617 FILLER_27_355
*1618 FILLER_27_359
*1619 FILLER_27_362
*1620 FILLER_27_364
*1621 FILLER_27_372
*1622 FILLER_27_388
*1623 FILLER_27_396
*1624 FILLER_27_404
*1625 FILLER_27_420
*1626 FILLER_28_1
*1627 FILLER_28_33
*1628 FILLER_28_65
*1629 FILLER_28_97
*1630 FILLER_28_129
*1631 FILLER_28_178
*1632 FILLER_28_187
*1633 FILLER_28_192
*1634 FILLER_28_208
*1635 FILLER_28_216
*1636 FILLER_28_225
*1637 FILLER_28_241
*1638 FILLER_28_249
*1639 FILLER_28_253
*1640 FILLER_28_255
*1641 FILLER_28_259
*1642 FILLER_28_284
*1643 FILLER_28_291
*1644 FILLER_28_323
*1645 FILLER_28_355
*1646 FILLER_28_374
*1647 FILLER_28_379
*1648 FILLER_28_387
*1649 FILLER_28_389
*1650 FILLER_28_407
*1651 FILLER_28_414
*1652 FILLER_28_418
*1653 FILLER_28_420
*1654 FILLER_29_1
*1655 FILLER_29_33
*1656 FILLER_29_65
*1657 FILLER_29_97
*1658 FILLER_29_129
*1659 FILLER_29_161
*1660 FILLER_29_177
*1661 FILLER_29_185
*1662 FILLER_29_187
*1663 FILLER_29_193
*1664 FILLER_29_209
*1665 FILLER_29_217
*1666 FILLER_29_223
*1667 FILLER_29_239
*1668 FILLER_29_247
*1669 FILLER_29_249
*1670 FILLER_29_257
*1671 FILLER_29_261
*1672 FILLER_29_267
*1673 FILLER_29_276
*1674 FILLER_29_288
*1675 FILLER_29_320
*1676 FILLER_29_322
*1677 FILLER_29_328
*1678 FILLER_29_360
*1679 FILLER_29_362
*1680 FILLER_29_367
*1681 FILLER_29_383
*1682 FILLER_29_391
*1683 FILLER_29_397
*1684 FILLER_29_402
*1685 FILLER_29_418
*1686 FILLER_29_420
*1687 FILLER_30_1
*1688 FILLER_30_33
*1689 FILLER_30_65
*1690 FILLER_30_97
*1691 FILLER_30_129
*1692 FILLER_30_145
*1693 FILLER_30_153
*1694 FILLER_30_157
*1695 FILLER_30_159
*1696 FILLER_30_163
*1697 FILLER_30_171
*1698 FILLER_30_175
*1699 FILLER_30_182
*1700 FILLER_30_231
*1701 FILLER_30_239
*1702 FILLER_30_243
*1703 FILLER_30_262
*1704 FILLER_30_267
*1705 FILLER_30_275
*1706 FILLER_30_279
*1707 FILLER_30_284
*1708 FILLER_30_291
*1709 FILLER_30_307
*1710 FILLER_30_315
*1711 FILLER_30_324
*1712 FILLER_30_329
*1713 FILLER_30_361
*1714 FILLER_30_393
*1715 FILLER_30_409
*1716 FILLER_30_417
*1717 FILLER_31_1
*1718 FILLER_31_33
*1719 FILLER_31_65
*1720 FILLER_31_97
*1721 FILLER_31_129
*1722 FILLER_31_161
*1723 FILLER_31_193
*1724 FILLER_31_225
*1725 FILLER_31_227
*1726 FILLER_31_233
*1727 FILLER_31_265
*1728 FILLER_31_273
*1729 FILLER_31_275
*1730 FILLER_31_293
*1731 FILLER_31_309
*1732 FILLER_31_313
*1733 FILLER_31_332
*1734 FILLER_31_339
*1735 FILLER_31_371
*1736 FILLER_31_403
*1737 FILLER_31_419
*1738 FILLER_32_1
*1739 FILLER_32_20
*1740 FILLER_32_52
*1741 FILLER_32_84
*1742 FILLER_32_116
*1743 FILLER_32_148
*1744 FILLER_32_164
*1745 FILLER_32_172
*1746 FILLER_32_175
*1747 FILLER_32_182
*1748 FILLER_32_187
*1749 FILLER_32_219
*1750 FILLER_32_237
*1751 FILLER_32_269
*1752 FILLER_32_277
*1753 FILLER_32_279
*1754 FILLER_32_287
*1755 FILLER_32_292
*1756 FILLER_32_308
*1757 FILLER_32_316
*1758 FILLER_32_320
*1759 FILLER_32_322
*1760 FILLER_32_326
*1761 FILLER_32_358
*1762 FILLER_32_373
*1763 FILLER_32_405
*1764 FILLER_33_1
*1765 FILLER_33_33
*1766 FILLER_33_65
*1767 FILLER_33_97
*1768 FILLER_33_129
*1769 FILLER_33_161
*1770 FILLER_33_174
*1771 FILLER_33_185
*1772 FILLER_33_196